data/ENWL/enwl_4wire/network_3/Feeder_1/Loads.txt
! Imported from Loads.txt, with modified neutral terminal
! ----------------------------------------------------------------------------
New Load.LOAD1 Phases=1 Bus1=66.1.4 kV=0.23 kW=1.968  PF=0.95
New Load.LOAD2 Phases=1 Bus1=72.3.4 kV=0.23 kW=0.306  PF=0.95
New Load.LOAD3 Phases=1 Bus1=82.1.4 kV=0.23 kW=2.94  PF=0.95
New Load.LOAD4 Phases=1 Bus1=88.1.4 kV=0.23 kW=0.324  PF=0.95
New Load.LOAD5 Phases=1 Bus1=94.1.4 kV=0.23 kW=1.332  PF=0.95
New Load.LOAD6 Phases=1 Bus1=100.2.4 kV=0.23 kW=3.0540000000000003  PF=0.95
New Load.LOAD7 Phases=1 Bus1=113.1.4 kV=0.23 kW=2.0580000000000003  PF=0.95
New Load.LOAD8 Phases=1 Bus1=120.3.4 kV=0.23 kW=0.29400000000000004  PF=0.95
New Load.LOAD9 Phases=1 Bus1=137.2.4 kV=0.23 kW=0.312  PF=0.95
New Load.LOAD10 Phases=1 Bus1=166.3.4 kV=0.23 kW=0.27  PF=0.95
New Load.LOAD11 Phases=1 Bus1=185.3.4 kV=0.23 kW=0.33  PF=0.95
New Load.LOAD12 Phases=1 Bus1=193.1.4 kV=0.23 kW=0.33  PF=0.95
New Load.LOAD13 Phases=1 Bus1=194.1.4 kV=0.23 kW=0.246  PF=0.95
New Load.LOAD14 Phases=1 Bus1=202.2.4 kV=0.23 kW=2.04  PF=0.95
New Load.LOAD15 Phases=1 Bus1=215.3.4 kV=0.23 kW=0.8280000000000001  PF=0.95
New Load.LOAD16 Phases=1 Bus1=247.1.4 kV=0.23 kW=0.11399999999999999  PF=0.95
New Load.LOAD17 Phases=1 Bus1=249.1.4 kV=0.23 kW=0.28800000000000003  PF=0.95
New Load.LOAD18 Phases=1 Bus1=260.2.4 kV=0.23 kW=0.324  PF=0.95
New Load.LOAD19 Phases=1 Bus1=261.2.4 kV=0.23 kW=1.944  PF=0.95
New Load.LOAD20 Phases=1 Bus1=266.2.4 kV=0.23 kW=0.264  PF=0.95
New Load.LOAD21 Phases=1 Bus1=286.3.4 kV=0.23 kW=0.336  PF=0.95
New Load.LOAD22 Phases=1 Bus1=295.3.4 kV=0.23 kW=0.966  PF=0.95
New Load.LOAD23 Phases=1 Bus1=296.3.4 kV=0.23 kW=0.246  PF=0.95
New Load.LOAD24 Phases=1 Bus1=334.1.4 kV=0.23 kW=1.956  PF=0.95
New Load.LOAD25 Phases=1 Bus1=335.1.4 kV=0.23 kW=0.29400000000000004  PF=0.95
New Load.LOAD26 Phases=1 Bus1=339.3.4 kV=0.23 kW=0.336  PF=0.95
New Load.LOAD27 Phases=1 Bus1=362.1.4 kV=0.23 kW=0.27  PF=0.95
New Load.LOAD28 Phases=1 Bus1=363.1.4 kV=0.23 kW=0.276  PF=0.95
New Load.LOAD29 Phases=1 Bus1=382.2.4 kV=0.23 kW=0.34800000000000003  PF=0.95
New Load.LOAD30 Phases=1 Bus1=384.3.4 kV=0.23 kW=0.264  PF=0.95
New Load.LOAD31 Phases=1 Bus1=392.1.4 kV=0.23 kW=0.28200000000000003  PF=0.95
New Load.LOAD32 Phases=1 Bus1=398.1.4 kV=0.23 kW=0.342  PF=0.95
New Load.LOAD33 Phases=1 Bus1=399.1.4 kV=0.23 kW=0.28800000000000003  PF=0.95
New Load.LOAD34 Phases=1 Bus1=400.2.4 kV=0.23 kW=2.748  PF=0.95
New Load.LOAD35 Phases=1 Bus1=417.3.4 kV=0.23 kW=0.9612  PF=0.95
New Load.LOAD36 Phases=1 Bus1=420.2.4 kV=0.23 kW=0.318  PF=0.95
New Load.LOAD37 Phases=1 Bus1=421.2.4 kV=0.23 kW=0.28200000000000003  PF=0.95
New Load.LOAD38 Phases=1 Bus1=433.1.4 kV=0.23 kW=0.276  PF=0.95
New Load.LOAD39 Phases=1 Bus1=449.3.4 kV=0.23 kW=9.738  PF=0.95
New Load.LOAD40 Phases=1 Bus1=470.3.4 kV=0.23 kW=0.28800000000000003  PF=0.95
New Load.LOAD41 Phases=1 Bus1=484.3.4 kV=0.23 kW=0.28800000000000003  PF=0.95
New Load.LOAD42 Phases=1 Bus1=485.3.4 kV=0.23 kW=0.15000000000000002  PF=0.95
New Load.LOAD43 Phases=1 Bus1=498.1.4 kV=0.23 kW=0.318  PF=0.95
New Load.LOAD44 Phases=1 Bus1=499.1.4 kV=0.23 kW=1.8719999999999999  PF=0.95
New Load.LOAD45 Phases=1 Bus1=537.3.4 kV=0.23 kW=5.586  PF=0.95
New Load.LOAD46 Phases=1 Bus1=547.1.4 kV=0.23 kW=0.336  PF=0.95
New Load.LOAD47 Phases=1 Bus1=570.2.4 kV=0.23 kW=0.354  PF=0.95
New Load.LOAD48 Phases=1 Bus1=589.1.4 kV=0.23 kW=0.21599999999999997  PF=0.95
New Load.LOAD49 Phases=1 Bus1=593.2.4 kV=0.23 kW=0.324  PF=0.95
New Load.LOAD50 Phases=1 Bus1=613.2.4 kV=0.23 kW=0.318  PF=0.95
New Load.LOAD51 Phases=1 Bus1=624.1.4 kV=0.23 kW=0.33  PF=0.95
New Load.LOAD52 Phases=1 Bus1=659.3.4 kV=0.23 kW=0.22799999999999998  PF=0.95
New Load.LOAD53 Phases=1 Bus1=683.3.4 kV=0.23 kW=0.9179999999999999  PF=0.95
New Load.LOAD54 Phases=1 Bus1=687.2.4 kV=0.23 kW=0.28800000000000003  PF=0.95
New Load.LOAD55 Phases=1 Bus1=693.3.4 kV=0.23 kW=0.4356  PF=0.95
New Load.LOAD56 Phases=1 Bus1=694.1.4 kV=0.23 kW=0.402  PF=0.95
New Load.LOAD57 Phases=1 Bus1=713.1.4 kV=0.23 kW=0.30000000000000004  PF=0.95
New Load.LOAD58 Phases=1 Bus1=722.1.4 kV=0.23 kW=0.354  PF=0.95
New Load.LOAD59 Phases=1 Bus1=740.2.4 kV=0.23 kW=0.264  PF=0.95
New Load.LOAD60 Phases=1 Bus1=742.1.4 kV=0.23 kW=0.30000000000000004  PF=0.95
New Load.LOAD61 Phases=1 Bus1=760.2.4 kV=0.23 kW=0.28800000000000003  PF=0.95
New Load.LOAD62 Phases=1 Bus1=772.2.4 kV=0.23 kW=1.476  PF=0.95
New Load.LOAD63 Phases=1 Bus1=797.3.4 kV=0.23 kW=1.242  PF=0.95
New Load.LOAD64 Phases=1 Bus1=813.1.4 kV=0.23 kW=1.536  PF=0.95
New Load.LOAD65 Phases=1 Bus1=815.3.4 kV=0.23 kW=0.30000000000000004  PF=0.95
New Load.LOAD66 Phases=1 Bus1=834.1.4 kV=0.23 kW=0.306  PF=0.95
New Load.LOAD67 Phases=1 Bus1=852.2.4 kV=0.23 kW=0.318  PF=0.95
New Load.LOAD68 Phases=1 Bus1=884.2.4 kV=0.23 kW=0.33  PF=0.95
New Load.LOAD69 Phases=1 Bus1=903.2.4 kV=0.23 kW=0.276  PF=0.95
New Load.LOAD70 Phases=1 Bus1=904.3.4 kV=0.23 kW=0.246  PF=0.95
New Load.LOAD71 Phases=1 Bus1=929.3.4 kV=0.23 kW=0.30000000000000004  PF=0.95
New Load.LOAD72 Phases=1 Bus1=936.1.4 kV=0.23 kW=0.264  PF=0.95
New Load.LOAD73 Phases=1 Bus1=937.1.4 kV=0.23 kW=1.9056  PF=0.95
New Load.LOAD74 Phases=1 Bus1=952.3.4 kV=0.23 kW=0.306  PF=0.95
New Load.LOAD75 Phases=1 Bus1=966.2.4 kV=0.23 kW=6.7476  PF=0.95
New Load.LOAD76 Phases=1 Bus1=989.3.4 kV=0.23 kW=0.21599999999999997  PF=0.95
New Load.LOAD77 Phases=1 Bus1=995.1.4 kV=0.23 kW=0.34800000000000003  PF=0.95
New Load.LOAD78 Phases=1 Bus1=1010.2.4 kV=0.23 kW=2.9939999999999998  PF=0.95
New Load.LOAD79 Phases=1 Bus1=1018.3.4 kV=0.23 kW=0.336  PF=0.95
New Load.LOAD80 Phases=1 Bus1=1019.1.4 kV=0.23 kW=0.28800000000000003  PF=0.95
New Load.LOAD81 Phases=1 Bus1=1027.1.4 kV=0.23 kW=0.7452000000000001  PF=0.95
New Load.LOAD82 Phases=1 Bus1=1044.1.4 kV=0.23 kW=1.158  PF=0.95
New Load.LOAD83 Phases=1 Bus1=1049.2.4 kV=0.23 kW=1.0379999999999998  PF=0.95
New Load.LOAD84 Phases=1 Bus1=1065.3.4 kV=0.23 kW=0.29400000000000004  PF=0.95
New Load.LOAD85 Phases=1 Bus1=1076.1.4 kV=0.23 kW=0.318  PF=0.95
New Load.LOAD86 Phases=1 Bus1=1090.2.4 kV=0.23 kW=0.28200000000000003  PF=0.95
New Load.LOAD87 Phases=1 Bus1=1091.3.4 kV=0.23 kW=0.318  PF=0.95
New Load.LOAD88 Phases=1 Bus1=1094.3.4 kV=0.23 kW=0.4644  PF=0.95
New Load.LOAD89 Phases=1 Bus1=1101.1.4 kV=0.23 kW=0.29400000000000004  PF=0.95
New Load.LOAD90 Phases=1 Bus1=1124.2.4 kV=0.23 kW=1.416  PF=0.95
New Load.LOAD91 Phases=1 Bus1=1130.3.4 kV=0.23 kW=0.342  PF=0.95
New Load.LOAD92 Phases=1 Bus1=1146.3.4 kV=0.23 kW=1.9740000000000002  PF=0.95
New Load.LOAD93 Phases=1 Bus1=1187.1.4 kV=0.23 kW=0.28800000000000003  PF=0.95
New Load.LOAD94 Phases=1 Bus1=1188.1.4 kV=0.23 kW=0.336  PF=0.95
! ----------------------------------------------------------------------------